<?xml version="1.0" encoding="UTF-8" standalone="yes"?>
<template encoding-version="1.3">
    <description></description>
    <groupId>ba30cd5d-017e-1000-f5c6-607ffebbfe65</groupId>
    <name>Simple_Kafka_Flow</name>
    <snippet>
        <connections>
            <id>468fc0d9-6dcf-3697-0000-000000000000</id>
            <parentGroupId>78b1541f-5594-36ca-0000-000000000000</parentGroupId>
            <backPressureDataSizeThreshold>1 GB</backPressureDataSizeThreshold>
            <backPressureObjectThreshold>10000</backPressureObjectThreshold>
            <destination>
                <groupId>78b1541f-5594-36ca-0000-000000000000</groupId>
                <id>413ef724-9d42-3506-0000-000000000000</id>
                <type>PROCESSOR</type>
            </destination>
            <flowFileExpiration>0 sec</flowFileExpiration>
            <labelIndex>1</labelIndex>
            <loadBalanceCompression>DO_NOT_COMPRESS</loadBalanceCompression>
            <loadBalancePartitionAttribute></loadBalancePartitionAttribute>
            <loadBalanceStatus>LOAD_BALANCE_NOT_CONFIGURED</loadBalanceStatus>
            <loadBalanceStrategy>DO_NOT_LOAD_BALANCE</loadBalanceStrategy>
            <name></name>
            <selectedRelationships>failure</selectedRelationships>
            <source>
                <groupId>78b1541f-5594-36ca-0000-000000000000</groupId>
                <id>878eaefb-3861-393e-0000-000000000000</id>
                <type>PROCESSOR</type>
            </source>
            <zIndex>0</zIndex>
        </connections>
        <connections>
            <id>f702e288-9e7f-3d15-0000-000000000000</id>
            <parentGroupId>78b1541f-5594-36ca-0000-000000000000</parentGroupId>
            <backPressureDataSizeThreshold>1 GB</backPressureDataSizeThreshold>
            <backPressureObjectThreshold>10000</backPressureObjectThreshold>
            <destination>
                <groupId>78b1541f-5594-36ca-0000-000000000000</groupId>
                <id>878eaefb-3861-393e-0000-000000000000</id>
                <type>PROCESSOR</type>
            </destination>
            <flowFileExpiration>0 sec</flowFileExpiration>
            <labelIndex>1</labelIndex>
            <loadBalanceCompression>DO_NOT_COMPRESS</loadBalanceCompression>
            <loadBalancePartitionAttribute></loadBalancePartitionAttribute>
            <loadBalanceStatus>LOAD_BALANCE_NOT_CONFIGURED</loadBalanceStatus>
            <loadBalanceStrategy>DO_NOT_LOAD_BALANCE</loadBalanceStrategy>
            <name></name>
            <selectedRelationships>success</selectedRelationships>
            <source>
                <groupId>78b1541f-5594-36ca-0000-000000000000</groupId>
                <id>4bb6c5e4-8b39-323f-0000-000000000000</id>
                <type>PROCESSOR</type>
            </source>
            <zIndex>0</zIndex>
        </connections>
        <processors>
            <id>413ef724-9d42-3506-0000-000000000000</id>
            <parentGroupId>78b1541f-5594-36ca-0000-000000000000</parentGroupId>
            <position>
                <x>0.0</x>
                <y>520.0</y>
            </position>
            <bundle>
                <artifact>nifi-standard-nar</artifact>
                <group>org.apache.nifi</group>
                <version>1.15.3</version>
            </bundle>
            <config>
                <bulletinLevel>WARN</bulletinLevel>
                <comments></comments>
                <concurrentlySchedulableTaskCount>1</concurrentlySchedulableTaskCount>
                <descriptors>
                    <entry>
                        <key>log-level</key>
                        <value>
                            <name>log-level</name>
                        </value>
                    </entry>
                    <entry>
                        <key>log-prefix</key>
                        <value>
                            <name>log-prefix</name>
                        </value>
                    </entry>
                    <entry>
                        <key>log-message</key>
                        <value>
                            <name>log-message</name>
                        </value>
                    </entry>
                </descriptors>
                <executionNode>ALL</executionNode>
                <lossTolerant>false</lossTolerant>
                <penaltyDuration>30 sec</penaltyDuration>
                <properties>
                    <entry>
                        <key>log-level</key>
                        <value>warn</value>
                    </entry>
                    <entry>
                        <key>log-prefix</key>
                        <value>Failed to publish kafka message: </value>
                    </entry>
                    <entry>
                        <key>log-message</key>
                    </entry>
                </properties>
                <runDurationMillis>0</runDurationMillis>
                <schedulingPeriod>0 sec</schedulingPeriod>
                <schedulingStrategy>TIMER_DRIVEN</schedulingStrategy>
                <yieldDuration>1 sec</yieldDuration>
            </config>
            <executionNodeRestricted>false</executionNodeRestricted>
            <name>LogMessage</name>
            <relationships>
                <autoTerminate>true</autoTerminate>
                <name>success</name>
            </relationships>
            <state>STOPPED</state>
            <style/>
            <type>org.apache.nifi.processors.standard.LogMessage</type>
        </processors>
        <processors>
            <id>4bb6c5e4-8b39-323f-0000-000000000000</id>
            <parentGroupId>78b1541f-5594-36ca-0000-000000000000</parentGroupId>
            <position>
                <x>0.0</x>
                <y>0.0</y>
            </position>
            <bundle>
                <artifact>nifi-kafka-2-6-nar</artifact>
                <group>org.apache.nifi</group>
                <version>1.15.3</version>
            </bundle>
            <config>
                <bulletinLevel>WARN</bulletinLevel>
                <comments></comments>
                <concurrentlySchedulableTaskCount>1</concurrentlySchedulableTaskCount>
                <descriptors>
                    <entry>
                        <key>bootstrap.servers</key>
                        <value>
                            <name>bootstrap.servers</name>
                        </value>
                    </entry>
                    <entry>
                        <key>topic</key>
                        <value>
                            <name>topic</name>
                        </value>
                    </entry>
                    <entry>
                        <key>topic_type</key>
                        <value>
                            <name>topic_type</name>
                        </value>
                    </entry>
                    <entry>
                        <key>group.id</key>
                        <value>
                            <name>group.id</name>
                        </value>
                    </entry>
                    <entry>
                        <key>Commit Offsets</key>
                        <value>
                            <name>Commit Offsets</name>
                        </value>
                    </entry>
                    <entry>
                        <key>max-uncommit-offset-wait</key>
                        <value>
                            <dependencies>
<dependentValues>true</dependentValues>
<propertyName>Commit Offsets</propertyName>
                            </dependencies>
                            <name>max-uncommit-offset-wait</name>
                        </value>
                    </entry>
                    <entry>
                        <key>honor-transactions</key>
                        <value>
                            <name>honor-transactions</name>
                        </value>
                    </entry>
                    <entry>
                        <key>message-demarcator</key>
                        <value>
                            <name>message-demarcator</name>
                        </value>
                    </entry>
                    <entry>
                        <key>separate-by-key</key>
                        <value>
                            <name>separate-by-key</name>
                        </value>
                    </entry>
                    <entry>
                        <key>security.protocol</key>
                        <value>
                            <name>security.protocol</name>
                        </value>
                    </entry>
                    <entry>
                        <key>sasl.mechanism</key>
                        <value>
                            <name>sasl.mechanism</name>
                        </value>
                    </entry>
                    <entry>
                        <key>kerberos-credentials-service</key>
                        <value>
                            <identifiesControllerService>org.apache.nifi.kerberos.KerberosCredentialsService</identifiesControllerService>
                            <name>kerberos-credentials-service</name>
                        </value>
                    </entry>
                    <entry>
                        <key>kerberos-user-service</key>
                        <value>
                            <identifiesControllerService>org.apache.nifi.kerberos.SelfContainedKerberosUserService</identifiesControllerService>
                            <name>kerberos-user-service</name>
                        </value>
                    </entry>
                    <entry>
                        <key>sasl.kerberos.service.name</key>
                        <value>
                            <name>sasl.kerberos.service.name</name>
                        </value>
                    </entry>
                    <entry>
                        <key>sasl.kerberos.principal</key>
                        <value>
                            <name>sasl.kerberos.principal</name>
                        </value>
                    </entry>
                    <entry>
                        <key>sasl.kerberos.keytab</key>
                        <value>
                            <name>sasl.kerberos.keytab</name>
                        </value>
                    </entry>
                    <entry>
                        <key>sasl.username</key>
                        <value>
                            <name>sasl.username</name>
                        </value>
                    </entry>
                    <entry>
                        <key>sasl.password</key>
                        <value>
                            <name>sasl.password</name>
                        </value>
                    </entry>
                    <entry>
                        <key>sasl.token.auth</key>
                        <value>
                            <name>sasl.token.auth</name>
                        </value>
                    </entry>
                    <entry>
                        <key>ssl.context.service</key>
                        <value>
                            <identifiesControllerService>org.apache.nifi.ssl.SSLContextService</identifiesControllerService>
                            <name>ssl.context.service</name>
                        </value>
                    </entry>
                    <entry>
                        <key>key-attribute-encoding</key>
                        <value>
                            <name>key-attribute-encoding</name>
                        </value>
                    </entry>
                    <entry>
                        <key>auto.offset.reset</key>
                        <value>
                            <name>auto.offset.reset</name>
                        </value>
                    </entry>
                    <entry>
                        <key>message-header-encoding</key>
                        <value>
                            <name>message-header-encoding</name>
                        </value>
                    </entry>
                    <entry>
                        <key>header-name-regex</key>
                        <value>
                            <name>header-name-regex</name>
                        </value>
                    </entry>
                    <entry>
                        <key>max.poll.records</key>
                        <value>
                            <name>max.poll.records</name>
                        </value>
                    </entry>
                    <entry>
                        <key>Communications Timeout</key>
                        <value>
                            <name>Communications Timeout</name>
                        </value>
                    </entry>
                </descriptors>
                <executionNode>ALL</executionNode>
                <lossTolerant>false</lossTolerant>
                <penaltyDuration>30 sec</penaltyDuration>
                <properties>
                    <entry>
                        <key>bootstrap.servers</key>
                        <value>localhost:9092</value>
                    </entry>
                    <entry>
                        <key>topic</key>
                        <value>my.source.topic</value>
                    </entry>
                    <entry>
                        <key>topic_type</key>
                        <value>names</value>
                    </entry>
                    <entry>
                        <key>group.id</key>
                        <value>nifi</value>
                    </entry>
                    <entry>
                        <key>Commit Offsets</key>
                        <value>true</value>
                    </entry>
                    <entry>
                        <key>max-uncommit-offset-wait</key>
                        <value>1 secs</value>
                    </entry>
                    <entry>
                        <key>honor-transactions</key>
                        <value>true</value>
                    </entry>
                    <entry>
                        <key>message-demarcator</key>
                    </entry>
                    <entry>
                        <key>separate-by-key</key>
                        <value>false</value>
                    </entry>
                    <entry>
                        <key>security.protocol</key>
                        <value>PLAINTEXT</value>
                    </entry>
                    <entry>
                        <key>sasl.mechanism</key>
                        <value>GSSAPI</value>
                    </entry>
                    <entry>
                        <key>kerberos-credentials-service</key>
                    </entry>
                    <entry>
                        <key>kerberos-user-service</key>
                    </entry>
                    <entry>
                        <key>sasl.kerberos.service.name</key>
                    </entry>
                    <entry>
                        <key>sasl.kerberos.principal</key>
                    </entry>
                    <entry>
                        <key>sasl.kerberos.keytab</key>
                    </entry>
                    <entry>
                        <key>sasl.username</key>
                    </entry>
                    <entry>
                        <key>sasl.password</key>
                    </entry>
                    <entry>
                        <key>sasl.token.auth</key>
                        <value>false</value>
                    </entry>
                    <entry>
                        <key>ssl.context.service</key>
                    </entry>
                    <entry>
                        <key>key-attribute-encoding</key>
                        <value>utf-8</value>
                    </entry>
                    <entry>
                        <key>auto.offset.reset</key>
                        <value>latest</value>
                    </entry>
                    <entry>
                        <key>message-header-encoding</key>
                        <value>UTF-8</value>
                    </entry>
                    <entry>
                        <key>header-name-regex</key>
                    </entry>
                    <entry>
                        <key>max.poll.records</key>
                        <value>10000</value>
                    </entry>
                    <entry>
                        <key>Communications Timeout</key>
                        <value>60 secs</value>
                    </entry>
                </properties>
                <runDurationMillis>0</runDurationMillis>
                <schedulingPeriod>0 sec</schedulingPeriod>
                <schedulingStrategy>TIMER_DRIVEN</schedulingStrategy>
                <yieldDuration>1 sec</yieldDuration>
            </config>
            <executionNodeRestricted>false</executionNodeRestricted>
            <name>ConsumeKafka_2_6</name>
            <relationships>
                <autoTerminate>false</autoTerminate>
                <name>success</name>
            </relationships>
            <state>STOPPED</state>
            <style/>
            <type>org.apache.nifi.processors.kafka.pubsub.ConsumeKafka_2_6</type>
        </processors>
        <processors>
            <id>878eaefb-3861-393e-0000-000000000000</id>
            <parentGroupId>78b1541f-5594-36ca-0000-000000000000</parentGroupId>
            <position>
                <x>0.0</x>
                <y>280.0</y>
            </position>
            <bundle>
                <artifact>nifi-kafka-2-6-nar</artifact>
                <group>org.apache.nifi</group>
                <version>1.15.3</version>
            </bundle>
            <config>
                <bulletinLevel>WARN</bulletinLevel>
                <comments></comments>
                <concurrentlySchedulableTaskCount>1</concurrentlySchedulableTaskCount>
                <descriptors>
                    <entry>
                        <key>bootstrap.servers</key>
                        <value>
                            <name>bootstrap.servers</name>
                        </value>
                    </entry>
                    <entry>
                        <key>topic</key>
                        <value>
                            <name>topic</name>
                        </value>
                    </entry>
                    <entry>
                        <key>use-transactions</key>
                        <value>
                            <name>use-transactions</name>
                        </value>
                    </entry>
                    <entry>
                        <key>transactional-id-prefix</key>
                        <value>
                            <dependencies>
<dependentValues>true</dependentValues>
<propertyName>use-transactions</propertyName>
                            </dependencies>
                            <name>transactional-id-prefix</name>
                        </value>
                    </entry>
                    <entry>
                        <key>message-demarcator</key>
                        <value>
                            <name>message-demarcator</name>
                        </value>
                    </entry>
                    <entry>
                        <key>Failure Strategy</key>
                        <value>
                            <name>Failure Strategy</name>
                        </value>
                    </entry>
                    <entry>
                        <key>acks</key>
                        <value>
                            <name>acks</name>
                        </value>
                    </entry>
                    <entry>
                        <key>attribute-name-regex</key>
                        <value>
                            <name>attribute-name-regex</name>
                        </value>
                    </entry>
                    <entry>
                        <key>message-header-encoding</key>
                        <value>
                            <name>message-header-encoding</name>
                        </value>
                    </entry>
                    <entry>
                        <key>security.protocol</key>
                        <value>
                            <name>security.protocol</name>
                        </value>
                    </entry>
                    <entry>
                        <key>sasl.mechanism</key>
                        <value>
                            <name>sasl.mechanism</name>
                        </value>
                    </entry>
                    <entry>
                        <key>kerberos-credentials-service</key>
                        <value>
                            <identifiesControllerService>org.apache.nifi.kerberos.KerberosCredentialsService</identifiesControllerService>
                            <name>kerberos-credentials-service</name>
                        </value>
                    </entry>
                    <entry>
                        <key>kerberos-user-service</key>
                        <value>
                            <identifiesControllerService>org.apache.nifi.kerberos.SelfContainedKerberosUserService</identifiesControllerService>
                            <name>kerberos-user-service</name>
                        </value>
                    </entry>
                    <entry>
                        <key>sasl.kerberos.service.name</key>
                        <value>
                            <name>sasl.kerberos.service.name</name>
                        </value>
                    </entry>
                    <entry>
                        <key>sasl.kerberos.principal</key>
                        <value>
                            <name>sasl.kerberos.principal</name>
                        </value>
                    </entry>
                    <entry>
                        <key>sasl.kerberos.keytab</key>
                        <value>
                            <name>sasl.kerberos.keytab</name>
                        </value>
                    </entry>
                    <entry>
                        <key>sasl.username</key>
                        <value>
                            <name>sasl.username</name>
                        </value>
                    </entry>
                    <entry>
                        <key>sasl.password</key>
                        <value>
                            <name>sasl.password</name>
                        </value>
                    </entry>
                    <entry>
                        <key>sasl.token.auth</key>
                        <value>
                            <name>sasl.token.auth</name>
                        </value>
                    </entry>
                    <entry>
                        <key>ssl.context.service</key>
                        <value>
                            <identifiesControllerService>org.apache.nifi.ssl.SSLContextService</identifiesControllerService>
                            <name>ssl.context.service</name>
                        </value>
                    </entry>
                    <entry>
                        <key>kafka-key</key>
                        <value>
                            <name>kafka-key</name>
                        </value>
                    </entry>
                    <entry>
                        <key>key-attribute-encoding</key>
                        <value>
                            <name>key-attribute-encoding</name>
                        </value>
                    </entry>
                    <entry>
                        <key>max.request.size</key>
                        <value>
                            <name>max.request.size</name>
                        </value>
                    </entry>
                    <entry>
                        <key>ack.wait.time</key>
                        <value>
                            <name>ack.wait.time</name>
                        </value>
                    </entry>
                    <entry>
                        <key>max.block.ms</key>
                        <value>
                            <name>max.block.ms</name>
                        </value>
                    </entry>
                    <entry>
                        <key>partitioner.class</key>
                        <value>
                            <name>partitioner.class</name>
                        </value>
                    </entry>
                    <entry>
                        <key>partition</key>
                        <value>
                            <name>partition</name>
                        </value>
                    </entry>
                    <entry>
                        <key>compression.type</key>
                        <value>
                            <name>compression.type</name>
                        </value>
                    </entry>
                </descriptors>
                <executionNode>ALL</executionNode>
                <lossTolerant>false</lossTolerant>
                <penaltyDuration>30 sec</penaltyDuration>
                <properties>
                    <entry>
                        <key>bootstrap.servers</key>
                        <value>localhost:9092</value>
                    </entry>
                    <entry>
                        <key>topic</key>
                        <value>my.sink.topic</value>
                    </entry>
                    <entry>
                        <key>use-transactions</key>
                        <value>false</value>
                    </entry>
                    <entry>
                        <key>transactional-id-prefix</key>
                    </entry>
                    <entry>
                        <key>message-demarcator</key>
                    </entry>
                    <entry>
                        <key>Failure Strategy</key>
                        <value>Route to Failure</value>
                    </entry>
                    <entry>
                        <key>acks</key>
                        <value>0</value>
                    </entry>
                    <entry>
                        <key>attribute-name-regex</key>
                    </entry>
                    <entry>
                        <key>message-header-encoding</key>
                        <value>UTF-8</value>
                    </entry>
                    <entry>
                        <key>security.protocol</key>
                        <value>PLAINTEXT</value>
                    </entry>
                    <entry>
                        <key>sasl.mechanism</key>
                        <value>GSSAPI</value>
                    </entry>
                    <entry>
                        <key>kerberos-credentials-service</key>
                    </entry>
                    <entry>
                        <key>kerberos-user-service</key>
                    </entry>
                    <entry>
                        <key>sasl.kerberos.service.name</key>
                    </entry>
                    <entry>
                        <key>sasl.kerberos.principal</key>
                    </entry>
                    <entry>
                        <key>sasl.kerberos.keytab</key>
                    </entry>
                    <entry>
                        <key>sasl.username</key>
                    </entry>
                    <entry>
                        <key>sasl.password</key>
                    </entry>
                    <entry>
                        <key>sasl.token.auth</key>
                        <value>false</value>
                    </entry>
                    <entry>
                        <key>ssl.context.service</key>
                    </entry>
                    <entry>
                        <key>kafka-key</key>
                    </entry>
                    <entry>
                        <key>key-attribute-encoding</key>
                        <value>utf-8</value>
                    </entry>
                    <entry>
                        <key>max.request.size</key>
                        <value>1 MB</value>
                    </entry>
                    <entry>
                        <key>ack.wait.time</key>
                        <value>5 secs</value>
                    </entry>
                    <entry>
                        <key>max.block.ms</key>
                        <value>5 sec</value>
                    </entry>
                    <entry>
                        <key>partitioner.class</key>
                        <value>org.apache.kafka.clients.producer.internals.DefaultPartitioner</value>
                    </entry>
                    <entry>
                        <key>partition</key>
                    </entry>
                    <entry>
                        <key>compression.type</key>
                        <value>none</value>
                    </entry>
                </properties>
                <runDurationMillis>0</runDurationMillis>
                <schedulingPeriod>0 sec</schedulingPeriod>
                <schedulingStrategy>TIMER_DRIVEN</schedulingStrategy>
                <yieldDuration>1 sec</yieldDuration>
            </config>
            <executionNodeRestricted>false</executionNodeRestricted>
            <name>PublishKafka_2_6</name>
            <relationships>
                <autoTerminate>false</autoTerminate>
                <name>failure</name>
            </relationships>
            <relationships>
                <autoTerminate>true</autoTerminate>
                <name>success</name>
            </relationships>